
  EPA STORM WATER MANAGEMENT MODEL - VERSION 5.2 (Build 5.2.4)
  ------------------------------------------------------------

  
  ****************
  Analysis Options
  ****************
  Flow Units ............... CMS
  Process Models:
    Rainfall/Runoff ........ YES
    RDII ................... NO
    Snowmelt ............... NO
    Groundwater ............ NO
    Flow Routing ........... YES
    Ponding Allowed ........ NO
    Water Quality .......... NO
  Infiltration Method ...... HORTON
  Flow Routing Method ...... KINWAVE
  Starting Date ............ 01/01/2010 00:00:00
  Ending Date .............. 12/31/2010 12:00:00
  Antecedent Dry Days ...... 10.0
  Report Time Step ......... 00:15:00
  Wet Time Step ............ 00:05:00
  Dry Time Step ............ 01:00:00
  Routing Time Step ........ 60.00 sec
  
  
  **************************        Volume         Depth
  Runoff Quantity Continuity     hectare-m            mm
  **************************     ---------       -------
  Total Precipitation ......       234.617      1178.800
  Evaporation Loss .........         0.000         0.000
  Infiltration Loss ........       111.444       559.933
  Surface Runoff ...........       123.132       618.660
  Final Storage ............         0.047         0.238
  Continuity Error (%) .....        -0.003
  
  
  **************************        Volume        Volume
  Flow Routing Continuity        hectare-m      10^6 ltr
  **************************     ---------     ---------
  Dry Weather Inflow .......        21.071       210.709
  Wet Weather Inflow .......       123.132      1231.332
  Groundwater Inflow .......         0.000         0.000
  RDII Inflow ..............         0.000         0.000
  External Inflow ..........         0.000         0.000
  External Outflow .........        41.272       412.726
  Flooding Loss ............       103.639      1036.399
  Evaporation Loss .........         0.000         0.000
  Exfiltration Loss ........         0.000         0.000
  Initial Stored Volume ....         0.000         0.000
  Final Stored Volume ......         0.003         0.026
  Continuity Error (%) .....        -0.493
  
  
  ********************************
  Highest Flow Instability Indexes
  ********************************
  All links are stable.
  
  
  *************************
  Routing Time Step Summary
  *************************
  Minimum Time Step           :    60.00 sec
  Average Time Step           :    60.00 sec
  Maximum Time Step           :    60.00 sec
  % of Time in Steady State   :     0.00
  Average Iterations per Step :     1.04
  % of Steps Not Converging   :     0.00
  
  
  ***************************
  Subcatchment Runoff Summary
  ***************************
  
  ------------------------------------------------------------------------------------------------------------------------------
                            Total      Total      Total      Total     Imperv       Perv      Total       Total     Peak  Runoff
                           Precip      Runon       Evap      Infil     Runoff     Runoff     Runoff      Runoff   Runoff   Coeff
  Subcatchment                 mm         mm         mm         mm         mm         mm         mm    10^6 ltr      CMS
  ------------------------------------------------------------------------------------------------------------------------------
  S1                      1178.80       0.00       0.00     559.97     294.48     324.13     618.61       38.60     0.09   0.525
  S2                      1178.80       0.00       0.00     557.08     294.49     327.03     621.51       15.72     0.04   0.527
  S3                      1178.80       0.00       0.00     554.79     294.49     329.32     623.81        8.23     0.02   0.529
  S4                      1178.80       0.00       0.00     562.26     294.48     321.84     616.32       56.83     0.14   0.523
  S5                      1178.80       0.00       0.00     557.00     294.49     327.11     621.60       17.34     0.04   0.527
  S6                      1178.80       0.00       0.00     556.12     294.49     327.99     622.47       12.39     0.03   0.528
  S7                      1178.80       0.00       0.00     555.10     294.49     329.01     623.50        3.99     0.01   0.529
  S8                      1178.80       0.00       0.00     555.45     294.49     328.66     623.15        6.79     0.02   0.529
  S9                      1178.80       0.00       0.00     554.78     294.49     329.33     623.83       17.90     0.04   0.529
  S10                     1178.80       0.00       0.00     553.16     294.50     330.95     625.44       17.51     0.04   0.531
  S11                     1178.80       0.00       0.00     556.34     294.49     327.77     622.26        7.65     0.02   0.528
  S12                     1178.80       0.00       0.00     554.15     294.49     329.96     624.45        6.99     0.02   0.530
  S13                     1178.80       0.00       0.00     551.82     294.50     332.30     626.80        5.27     0.01   0.532
  S13A                    1178.80       0.00       0.00     552.27     294.50     331.84     626.34        4.01     0.01   0.531
  S14                     1178.80       0.00       0.00     551.47     294.50     332.65     627.15       12.29     0.03   0.532
  S15                     1178.80       0.00       0.00     550.10     294.51     334.02     628.53       26.59     0.06   0.533
  S15A                    1178.80       0.00       0.00     551.77     294.50     332.34     626.84       10.41     0.02   0.532
  S15B                    1178.80       0.00       0.00     547.71     294.50     336.43     630.92        3.53     0.01   0.535
  S16                     1178.80       0.00       0.00     562.50     294.48     321.61     616.09       31.17     0.07   0.523
  S17                     1178.80       0.00       0.00     560.62     294.48     323.49     617.97       18.48     0.04   0.524
  S18                     1178.80       0.00       0.00     564.15     294.48     319.95     614.43       10.63     0.03   0.521
  S19                     1178.80       0.00       0.00     561.67     294.48     322.43     616.91       25.60     0.06   0.523
  S20                     1178.80       0.00       0.00     565.47     294.48     318.64     613.11       10.67     0.03   0.520
  S21                     1178.80       0.00       0.00     563.88     294.48     320.23     614.71       17.77     0.04   0.521
  S22                     1178.80       0.00       0.00     561.91     294.48     322.20     616.68       22.32     0.05   0.523
  S23                     1178.80       0.00       0.00     558.30     294.48     325.81     620.29       10.05     0.02   0.526
  S24                     1178.80       0.00       0.00     556.92     294.49     327.19     621.68        4.04     0.01   0.527
  S25                     1178.80       0.00       0.00     559.39     294.48     324.72     619.20        2.97     0.01   0.525
  S26                     1178.80       0.00       0.00     558.01     294.49     326.10     620.59        3.79     0.01   0.526
  S27                     1178.80       0.00       0.00     560.45     294.48     323.65     618.13       23.67     0.06   0.524
  S28                     1178.80       0.00       0.00     562.98     294.48     321.13     615.61        8.19     0.02   0.522
  S29                     1178.80       0.00       0.00     564.44     294.48     319.66     614.14       12.96     0.03   0.521
  S30                     1178.80       0.00       0.00     563.75     294.48     320.36     614.83       12.17     0.03   0.522
  S31                     1178.80       0.00       0.00     555.44     294.49     328.67     623.16        6.54     0.02   0.529
  S31A                    1178.80       0.00       0.00     561.26     294.48     322.85     617.33        5.37     0.01   0.524
  S32                     1178.80       0.00       0.00     559.33     294.48     324.78     619.26       13.56     0.03   0.525
  S33                     1178.80       0.00       0.00     562.97     294.48     321.14     615.62       11.45     0.03   0.522
  S34                     1178.80       0.00       0.00     551.97     294.50     332.15     626.65        7.08     0.02   0.532
  S34A                    1178.80       0.00       0.00     556.69     294.49     327.42     621.91        8.89     0.02   0.528
  S35                     1178.80       0.00       0.00     555.31     294.49     328.80     623.29       18.70     0.04   0.529
  S36                     1178.80       0.00       0.00     556.80     294.49     327.31     621.80       19.77     0.05   0.527
  S37                     1178.80       0.00       0.00     557.82     294.49     326.29     620.77        7.26     0.02   0.527
  S38                     1178.80       0.00       0.00     556.19     294.49     327.92     622.41       15.87     0.04   0.528
  S39                     1178.80       0.00       0.00     559.34     294.48     324.76     619.25       15.48     0.04   0.525
  S40                     1178.80       0.00       0.00     561.28     294.48     322.82     617.31       10.99     0.03   0.524
  S41                     1178.80       0.00       0.00     555.84     294.49     328.27     622.76       24.97     0.06   0.528
  S42                     1178.80       0.00       0.00     557.20     294.49     326.91     621.40       17.03     0.04   0.527
  S43                     1178.80       0.00       0.00     559.76     294.48     324.35     618.83       15.47     0.04   0.525
  S44                     1178.80       0.00       0.00     564.46     294.48     319.65     614.13        8.47     0.02   0.521
  S44A                    1178.80       0.00       0.00     562.17     294.48     321.93     616.41        8.32     0.02   0.523
  S45                     1178.80       0.00       0.00     568.22     294.48     315.88     610.36        8.97     0.02   0.518
  S46                     1178.80       0.00       0.00     560.47     294.48     323.64     618.12        7.54     0.02   0.524
  S47                     1178.80       0.00       0.00     562.50     294.48     321.60     616.08        6.84     0.02   0.523
  S48                     1178.80       0.00       0.00     566.35     294.48     317.75     612.23       22.90     0.05   0.519
  S49                     1178.80       0.00       0.00     560.84     294.48     323.27     617.75       61.53     0.15   0.524
  S50                     1178.80       0.00       0.00     552.57     294.50     331.55     626.05       42.38     0.10   0.531
  S51                     1178.80       0.00       0.00     549.79     294.51     334.33     628.84       22.58     0.05   0.533
  S52                     1178.80       0.00       0.00     554.01     294.49     330.10     624.59       12.74     0.03   0.530
  S53                     1178.80       0.00       0.00     549.94     294.51     334.18     628.69       15.91     0.04   0.533
  S54                     1178.80       0.00       0.00     550.85     294.51     333.27     627.78       12.18     0.03   0.533
  S55                     1178.80       0.00       0.00     556.88     294.49     327.23     621.71       11.50     0.03   0.527
  S56                     1178.80       0.00       0.00     557.53     294.49     326.58     621.07        9.38     0.02   0.527
  S57                     1178.80       0.00       0.00     552.45     294.50     331.66     626.16       12.46     0.03   0.531
  S58                     1178.80       0.00       0.00     549.78     294.51     334.34     628.85        5.28     0.01   0.533
  S59                     1178.80       0.00       0.00     557.26     294.49     326.84     621.33        9.07     0.02   0.527
  S60                     1178.80       0.00       0.00     555.33     294.49     328.78     623.27       10.28     0.02   0.529
  S61                     1178.80       0.00       0.00     552.02     294.50     332.09     626.59        9.65     0.02   0.532
  S62                     1178.80       0.00       0.00     566.64     294.48     317.46     611.94      206.29     0.50   0.519
  S63                     1178.80       0.00       0.00     568.90     294.48     315.20     609.68       42.07     0.10   0.517
  
  
  ******************
  Node Depth Summary
  ******************
  
  ---------------------------------------------------------------------------------
                                 Average  Maximum  Maximum  Time of Max    Reported
                                   Depth    Depth      HGL   Occurrence   Max Depth
  Node                 Type       Meters   Meters   Meters  days hr:min      Meters
  ---------------------------------------------------------------------------------
  001                  JUNCTION     0.09     1.10     2.62    54  03:59        1.10
  002                  JUNCTION     0.07     0.20     1.65    54  05:04        0.20
  003                  JUNCTION     0.07     1.40     2.72    88  00:25        1.40
  004                  JUNCTION     0.10     1.50     2.72    54  04:30        1.50
  005                  JUNCTION     0.08     0.30     1.48    54  07:50        0.30
  006                  JUNCTION     0.08     2.40     2.78    88  00:15        2.40
  007                  JUNCTION     0.06     0.25     0.83    88  01:20        0.25
  008                  JUNCTION     0.02     1.20     2.78    88  00:28        1.20
  009                  JUNCTION     0.02     1.00     2.78    88  00:21        1.00
  010                  JUNCTION     0.05     1.75     2.78    88  00:18        1.75
  011                  JUNCTION     0.01     0.16     1.72    89  00:01        0.16
  012                  JUNCTION     0.01     0.16     2.22    89  00:01        0.16
  013                  JUNCTION     0.03     2.80     4.11    88  00:07        2.80
  014                  JUNCTION     0.02     1.50     3.56    88  00:19        1.50
  015                  JUNCTION     0.02     0.16     1.52    89  00:24        0.16
  016                  JUNCTION     0.02     0.20     2.56    88  00:08        0.20
  017                  JUNCTION     0.01     0.07     2.34    88  16:58        0.07
  018                  JUNCTION     0.02     1.90     4.36    88  00:04        1.90
  019                  JUNCTION     0.01     0.09     3.49    88  18:50        0.09
  020                  JUNCTION     0.01     0.20     1.79    88  00:29        0.20
  021                  JUNCTION     0.06     1.50     4.90    54  04:30        1.50
  022                  JUNCTION     0.09     2.60     4.89    54  04:46        2.60
  023                  JUNCTION     0.04     1.00     3.40    54  05:50        1.00
  024                  JUNCTION     0.27     3.00     4.36    17  00:50        3.00
  025                  JUNCTION     0.02     1.00     2.55    88  00:06        1.00
  026                  JUNCTION     0.38     3.20     4.36    17  00:37        3.20
  027                  JUNCTION     0.34     2.50     3.56    17  00:33        2.50
  028                  JUNCTION     0.07     0.20     1.16    17  00:39        0.20
  029                  JUNCTION     0.06     2.00     2.72    88  00:32        2.00
  030                  JUNCTION     0.05     0.11     0.99   122  15:50        0.11
  030A                 JUNCTION     0.05     0.10     1.08    54  02:58        0.10
  031                  JUNCTION     0.09     0.25     1.43    24  13:20        0.25
  032                  JUNCTION     0.19     2.31     3.50    24  09:52        2.31
  033                  JUNCTION     0.08     0.13     1.33    61  01:26        0.13
  034                  JUNCTION     0.06     0.10     1.35   205  00:37        0.10
  034A                 JUNCTION     0.10     0.20     1.50     0  10:19        0.20
  035                  JUNCTION     0.52     2.50     3.81     0  09:38        2.50
  035A                 JUNCTION     0.02     1.50     3.51    88  00:41        1.50
  036                  JUNCTION     0.23     2.60     4.17    17  00:50        2.60
  037                  JUNCTION     0.01     0.12     2.79    89  00:00        0.12
  038                  JUNCTION     0.02     2.00     4.19    88  00:35        2.00
  039                  JUNCTION     0.01     0.08     3.07    89  00:01        0.08
  040                  JUNCTION     0.02     1.80     4.17    88  00:43        1.80
  041                  JUNCTION     0.01     0.15     2.82    88  23:52        0.15
  042                  JUNCTION     0.01     0.11     3.28    89  00:01        0.11
  043                  JUNCTION     0.01     0.12     2.79    88  20:44        0.12
  044                  JUNCTION     0.02     2.20     3.96    88  00:38        2.20
  045                  JUNCTION     0.18     2.80     3.96    17  16:37        2.80
  046                  JUNCTION     0.05     2.40     3.47    88  00:03        2.40
  047                  JUNCTION     0.03     0.20     0.92    88  00:08        0.20
  048                  JUNCTION     0.15     2.00     2.24    17  11:39        2.00
  049                  JUNCTION     0.18     2.20     2.24    17  11:07        2.20
  050                  JUNCTION     0.15     2.10     2.25    17  12:48        2.10
  050A                 JUNCTION     0.05     0.25     0.39    24  08:07        0.25
  051                  JUNCTION     0.02     1.00     2.25    88  00:05        1.00
  052                  JUNCTION     0.02     0.13     0.53    81  03:26        0.13
  053                  JUNCTION     0.03     0.20     0.82    54  03:52        0.20
  054                  JUNCTION     0.03     0.40     1.12    54  03:20        0.40
  055                  JUNCTION     0.01     0.20     1.52    88  00:38        0.20
  056                  JUNCTION     0.02     1.00     2.62    88  00:23        1.00
  057                  JUNCTION     0.04     0.20     1.42    18  00:09        0.20
  058                  JUNCTION     0.01     0.14     2.11    88  19:42        0.14
  059                  JUNCTION     0.01     0.13     1.60    88  00:10        0.13
  060                  JUNCTION     0.02     1.50     3.47    88  00:39        1.50
  061                  JUNCTION     0.01     0.13     2.59    88  21:05        0.13
  062                  JUNCTION     0.02     0.20     2.16    88  00:10        0.20
  063                  JUNCTION     0.01     0.17     2.22    88  12:47        0.17
  064                  JUNCTION     0.02     1.50     3.55    88  00:04        1.50
  065                  JUNCTION     0.02     1.50     3.59    88  00:51        1.50
  066                  JUNCTION     0.07     2.20     3.59    54  03:53        2.20
  067                  JUNCTION     0.43     3.00     3.64    17  00:27        3.00
  068                  JUNCTION     0.08     2.80     3.64    54  06:59        2.80
  069                  JUNCTION     0.08     2.90     3.81    54  06:41        2.90
  070                  JUNCTION     0.07     2.80     3.81    54  09:20        2.80
  071                  JUNCTION     0.02     1.50     3.50    88  00:49        1.50
  072                  JUNCTION     0.01     1.00     3.50    88  00:23        1.00
  073                  JUNCTION     0.16     2.40     3.53    17  13:37        2.40
  074                  JUNCTION     0.04     1.00     2.72    54  04:06        1.00
  075                  JUNCTION     0.01     0.09     1.81    89  00:01        0.09
  076                  JUNCTION     0.01     0.07     2.10    88  21:51        0.07
  077                  JUNCTION     0.02     2.20     3.53    88  01:12        2.20
  078                  JUNCTION     0.01     0.12     1.65    88  21:48        0.12
  079                  JUNCTION     0.01     0.09     1.82    88  20:10        0.09
  079A                 JUNCTION     0.01     0.07     2.10    88  20:12        0.07
  080                  JUNCTION     0.00     0.00     2.03     0  00:00        0.00
  081                  JUNCTION     0.02     1.50     3.82    87  07:45        1.50
  082                  JUNCTION     0.01     0.16     2.08    89  00:01        0.16
  083                  JUNCTION     0.01     0.16     2.48    89  00:01        0.16
  084                  JUNCTION     0.01     0.16     1.48    89  00:01        0.16
  085                  JUNCTION     0.08     2.55     3.18    88  00:06        2.55
  086                  JUNCTION     0.03     0.15     0.39    24  10:42        0.15
  087                  JUNCTION     0.14     1.90     2.43    24  13:10        1.90
  088                  JUNCTION     0.02     1.20     3.18    88  00:09        1.20
  089                  JUNCTION     0.07     1.40     2.62    54  02:55        1.40
  090                  JUNCTION     0.01     0.10     2.15    88  12:08        0.10
  090A                 JUNCTION     0.02     1.80     3.55    88  00:29        1.80
  091                  JUNCTION     0.10     2.10     3.55    24  10:33        2.10
  092                  JUNCTION     0.01     0.30     1.82    88  00:12        0.30
  093                  JUNCTION     0.08     1.40     2.80    24  09:34        1.40
  094                  JUNCTION     0.05     0.30     1.60    17  12:36        0.30
  095                  JUNCTION     0.02     0.30     1.70    88  00:02        0.30
  096                  JUNCTION     0.10     1.60     2.62    24  09:27        1.60
  097                  JUNCTION     0.04     0.20     1.13    24  10:38        0.20
  098                  JUNCTION     0.03     0.12     0.85   334  16:15        0.12
  099                  JUNCTION     0.03     0.11     0.64   334  16:17        0.11
  100                  JUNCTION     0.04     0.15     0.58   334  16:17        0.15
  101                  JUNCTION     0.05     0.25     0.83    88  00:14        0.25
  102                  JUNCTION     0.02     0.19     1.42    88  00:50        0.19
  103                  JUNCTION     0.02     0.20     1.66    88  00:51        0.20
  104                  JUNCTION     0.02     1.50     3.16    88  00:37        1.50
  105                  JUNCTION     0.01     0.08     1.74    88  23:52        0.08
  106                  JUNCTION     0.02     1.20     3.16    88  01:03        1.20
  107                  JUNCTION     0.02     1.00     2.62    88  00:12        1.00
  108                  JUNCTION     0.03     0.25     1.57    87  03:53        0.25
  109                  JUNCTION     0.03     0.60     1.34    88  00:34        0.60
  110                  JUNCTION     0.02     0.30     1.34    88  00:11        0.30
  111                  JUNCTION     0.05     0.14     0.58    71  03:17        0.14
  112                  JUNCTION     0.08     0.30     0.82    54  03:36        0.30
  113                  JUNCTION     0.04     0.15     0.49    24  10:40        0.15
  114                  JUNCTION     0.11     1.15     1.34    17  14:55        1.15
  115                  JUNCTION     0.06     0.30     0.45    24  09:23        0.30
  116                  JUNCTION     0.05     0.27     0.42    89  00:25        0.25
  116A                 JUNCTION     0.02     0.23     0.43    88  17:32        0.23
  117                  JUNCTION     0.02     0.23     0.53    88  17:30        0.23
  118                  JUNCTION     0.05     1.10     1.30    88  00:07        1.10
  119                  JUNCTION     0.04     0.11     0.41    71  03:18        0.11
  120                  JUNCTION     0.02     0.08     0.58   345  05:21        0.08
  121                  JUNCTION     0.03     0.50     1.30    54  04:09        0.50
  122                  JUNCTION     0.04     0.25     1.62    54  03:25        0.25
  123                  JUNCTION     0.01     0.16     2.03    89  00:01        0.16
  124                  JUNCTION     0.08     1.70     3.09    54  03:02        1.70
  125                  JUNCTION     0.03     1.50     3.09    87  05:50        1.50
  126                  JUNCTION     0.01     0.11     2.06    89  00:01        0.11
  127                  JUNCTION     0.02     1.40     2.95    89  00:03        0.21
  128                  JUNCTION     0.04     1.60     2.95    71  06:01        1.60
  0129                 JUNCTION     0.02     1.00     2.95    88  00:04        1.00
  130                  JUNCTION     0.02     1.70     3.58    88  01:59        1.70
  131                  JUNCTION     0.01     0.14     2.22    88  17:40        0.14
  132                  JUNCTION     0.18     2.50     3.58    17  10:42        2.50
  133                  JUNCTION     0.02     1.50     3.58    88  00:37        1.50
  134                  JUNCTION     0.07     3.00     4.11    54  04:54        3.00
  135                  JUNCTION     0.03     2.90     4.11    88  00:09        2.90
  136                  JUNCTION     0.02     1.50     3.82    88  01:06        1.50
  137                  JUNCTION     0.01     0.20     2.22    89  00:03        0.18
  138                  JUNCTION     0.07     2.50     3.77    54  04:52        2.50
  139                  JUNCTION     0.03     0.20     1.52    54  03:35        0.20
  139A                 JUNCTION     0.07     1.90     3.24    54  03:13        1.90
  139B                 JUNCTION     0.02     1.70     3.24    88  00:08        1.70
  140                  JUNCTION     0.02     1.50     3.24    88  00:26        1.50
  141                  JUNCTION     0.02     1.30     3.24    88  00:42        1.30
  142                  JUNCTION     0.02     1.50     4.11    88  00:55        1.50
  143                  JUNCTION     0.01     0.09     2.33    88  12:34        0.09
  144                  JUNCTION     0.01     0.09     2.13    89  00:02        0.09
  145                  JUNCTION     0.02     1.50     3.28    88  00:12        1.50
  146                  JUNCTION     0.01     0.12     1.60    89  00:02        0.12
  147                  JUNCTION     0.02     1.60     3.28    88  00:15        1.60
  148                  JUNCTION     0.01     0.12     1.86    88  11:52        0.12
  149                  JUNCTION     0.02     2.00     3.28    88  00:18        2.00
  150                  JUNCTION     0.02     1.00     1.79    88  00:07        1.00
  151                  JUNCTION     0.02     1.20     1.79    88  00:16        1.20
  152                  JUNCTION     0.01     0.15     0.94    89  00:03        0.15
  153                  JUNCTION     0.01     0.10     1.19    89  00:03        0.10
  154                  JUNCTION     0.01     0.13     1.52    89  00:03        0.13
  155                  JUNCTION     0.01     0.13     1.87    88  15:21        0.13
  156                  JUNCTION     0.01     0.20     2.24    89  00:03        0.19
  157                  JUNCTION     0.01     1.00     3.24    88  00:48        1.00
  158                  JUNCTION     0.02     1.40     1.79    88  00:18        0.20
  159                  JUNCTION     0.06     1.50     1.79    54  03:09        1.50
  160                  JUNCTION     0.03     1.80     2.34    87  03:06        1.80
  161                  JUNCTION     0.02     2.00     3.09    88  00:02        2.00
  162                  JUNCTION     0.02     1.20     3.09    88  00:16        1.20
  163                  JUNCTION     0.02     0.20     1.78    88  00:15        0.20
  164                  JUNCTION     0.02     0.60     2.33    88  00:08        0.60
  165                  JUNCTION     0.01     0.10     1.12    89  00:05        0.10
  166                  JUNCTION     0.01     0.10     1.32    89  00:05        0.10
  167                  JUNCTION     0.01     0.19     1.51    89  00:04        0.17
  168                  JUNCTION     0.01     0.70     2.05    88  00:38        0.70
  169                  JUNCTION     0.01     0.11     1.66    88  06:31        0.11
  170                  JUNCTION     0.02     1.40     2.87    88  00:04        1.40
  171                  JUNCTION     0.01     0.10     2.19    88  11:59        0.10
  172                  JUNCTION     0.01     0.11     1.98    88  19:43        0.11
  173                  JUNCTION     0.02     0.20     1.57    88  00:07        0.20
  173A                 JUNCTION     0.01     0.11     1.28    88  00:06        0.11
  174                  JUNCTION     0.01     0.12     0.62    88  00:07        0.11
  175                  JUNCTION     0.03     1.50     4.30    71  07:49        1.50
  176                  JUNCTION     0.07     2.00     4.30    54  04:18        2.00
  177                  JUNCTION     0.16     2.82     4.64    24  10:18        2.82
  178                  JUNCTION     0.04     0.20     1.90    24  11:52        0.20
  179                  JUNCTION     0.03     0.13     1.53    54  02:48        0.13
  179W                 JUNCTION     0.04     0.16     1.76    54  02:48        0.16
  180                  JUNCTION     0.14     2.60     3.77    24  10:19        2.60
  181                  JUNCTION     0.11     1.10     2.18    17  12:26        1.10
  182                  JUNCTION     0.06     0.25     1.20    17  13:53        0.25
  183                  JUNCTION     0.03     0.15     0.80    81  08:51        0.15
  184                  JUNCTION     0.02     0.20     1.65    71  07:58        0.20
  185                  JUNCTION     0.04     1.30     3.04    54  06:11        1.30
  186                  JUNCTION     0.03     1.50     3.04    87  04:03        1.50
  187                  JUNCTION     0.06     2.40     3.80    54  04:21        2.40
  188                  JUNCTION     0.02     1.50     3.80    88  00:26        1.50
  189                  JUNCTION     0.01     0.11     2.41    88  16:39        0.11
  190                  JUNCTION     0.07     1.80     3.04    54  03:59        1.80
  191                  JUNCTION     0.02     1.50     3.04    88  00:03        1.50
  192                  JUNCTION     0.02     0.20     1.02    71  03:43        0.20
  193                  JUNCTION     0.03     0.25     1.12    54  03:27        0.25
  194                  JUNCTION     0.02     2.50     4.17    88  01:00        2.50
  195                  JUNCTION     0.01     0.12     2.79    89  00:01        0.12
  196                  JUNCTION     0.01     0.10     2.13    89  00:01        0.10
  196A                 JUNCTION     0.01     0.11     1.64    89  00:01        0.11
  197                  JUNCTION     0.02     0.10     1.43    56  03:47        0.10
  198                  JUNCTION     0.02     0.15     1.68    54  04:39        0.15
  199                  JUNCTION     0.01     0.15     2.35    88  00:36        0.15
  200                  JUNCTION     0.07     1.20     1.30    54  04:55        1.20
  201                  JUNCTION     0.34     1.30     1.30     0  09:52        1.30
  203                  JUNCTION     0.01     0.18     1.93    89  00:03        0.17
  205                  JUNCTION     0.01     0.10     1.02    89  00:06        0.10
  206                  JUNCTION     0.01     0.09     0.83    89  00:07        0.09
  207                  JUNCTION     0.01     0.09     2.25    88  21:26        0.09
  208                  JUNCTION     0.03     0.14     1.41   320  16:35        0.14
  212                  JUNCTION     0.02     1.00     2.59    88  00:09        1.00
  300                  JUNCTION     0.04     2.00     5.91    71  06:59        2.00
  301                  JUNCTION     0.02     0.20     2.70    87  04:14        0.20
  302                  JUNCTION     0.04     0.20     1.77    24  10:20        0.20
  303                  JUNCTION     0.14     2.20     3.86    17  19:01        2.20
  304                  JUNCTION     0.09     2.00     3.86    54  03:10        2.00
  305                  JUNCTION     0.03     0.20     2.85    54  03:57        0.20
  306                  JUNCTION     0.06     1.50     4.35    54  03:35        1.50
  309                  JUNCTION     0.06     0.14     2.26    24  01:32        0.14
  310                  JUNCTION     0.05     0.11     2.83   202  02:04        0.11
  311                  JUNCTION     0.07     0.20     3.21    17  12:17        0.20
  312                  JUNCTION     0.29     2.80     5.88    17  00:46        2.80
  313                  JUNCTION     0.06     0.20     3.58    24  16:48        0.20
  314                  JUNCTION     0.08     0.20     4.72    17  00:35        0.20
  314A                 JUNCTION     0.06     0.13     3.61   270  01:05        0.13
  315                  JUNCTION     0.05     0.13     4.89   360  00:58        0.13
  316                  JUNCTION     0.46     3.00     7.56    17  00:28        3.00
  317                  JUNCTION     0.05     0.15     5.35    17  00:43        0.15
  318                  JUNCTION     0.07     0.20     5.60    17  00:43        0.20
  319                  JUNCTION     0.48     4.20     9.85    17  00:29        4.20
  320                  JUNCTION     0.28     4.00     9.85    17  12:20        4.00
  321                  JUNCTION     0.04     0.16     7.40    17  16:53        0.16
  322                  JUNCTION     0.05     0.20     7.74    17  16:55        0.20
  323                  JUNCTION     0.11     3.00    11.60    54  03:33        3.00
  323A                 JUNCTION     0.23     3.50    11.60    17  14:46        3.50
  324                  JUNCTION     0.11     2.00     5.47    24  12:58        2.00
  PS1                  JUNCTION     0.03     0.15     0.63    81  08:51        0.15
  PS2                  JUNCTION     0.03     0.20     0.39    54  03:18        0.20
  PS3                  JUNCTION     0.11     0.20     0.20     0  10:02        0.20
  PS4                  JUNCTION     0.06     0.25     0.27    17  11:40        0.25
  PS5                  JUNCTION     0.07     0.30     0.58    89  00:28        0.30
  PS6                  JUNCTION     0.06     0.14     1.99    17  12:20        0.14
  O2                   JUNCTION     0.11     0.30     2.54    17  00:56        0.30
  O3                   OUTFALL      0.11     0.30     2.37    17  12:15        0.30
  
  
  *******************
  Node Inflow Summary
  *******************
  
  -------------------------------------------------------------------------------------------------
                                  Maximum  Maximum                  Lateral       Total        Flow
                                  Lateral    Total  Time of Max      Inflow      Inflow     Balance
                                   Inflow   Inflow   Occurrence      Volume      Volume       Error
  Node                 Type           CMS      CMS  days hr:min    10^6 ltr    10^6 ltr     Percent
  -------------------------------------------------------------------------------------------------
  001                  JUNCTION     0.000    0.029    89  00:14           0        92.5       0.000
  002                  JUNCTION     0.000    0.013    81  04:27           0        89.3       0.000
  003                  JUNCTION     0.000    0.033    88  00:37           0         104      -0.000
  004                  JUNCTION     0.000    0.055    89  00:02           0         116       0.000
  005                  JUNCTION     0.000    0.024   287  09:39           0         111       0.000
  006                  JUNCTION     0.000    0.080    88  00:39           0         355      -0.000
  007                  JUNCTION     0.000    0.058    88  00:39           0         244       0.000
  008                  JUNCTION     0.000    0.020    88  00:36           0        14.2       0.000
  009                  JUNCTION     0.031    0.031    89  00:01        15.2        15.2      -0.000
  010                  JUNCTION     0.000    0.033    89  00:01           0        49.7      -0.000
  011                  JUNCTION     0.000    0.025    89  00:01           0        12.5       0.000
  012                  JUNCTION     0.025    0.025    89  00:01        12.5        12.5       0.000
  013                  JUNCTION     0.000    0.013    89  00:25           0        13.1       0.000
  014                  JUNCTION     0.061    0.061    89  00:01          30          30      -0.000
  015                  JUNCTION     0.000    0.013    89  00:24           0        13.1       0.000
  016                  JUNCTION     0.000    0.014    89  00:23           0        13.1       0.000
  017                  JUNCTION     0.009    0.009    88  17:06        4.67        4.67      -0.000
  018                  JUNCTION     0.000    0.029    88  18:47           0        14.5      -0.000
  019                  JUNCTION     0.029    0.029    88  18:50        14.5        14.5       0.000
  020                  JUNCTION     0.000    0.023    88  00:27           0        13.7       0.000
  021                  JUNCTION     0.016    0.056    88  17:41        7.95         131       0.000
  022                  JUNCTION     0.000    0.058    89  01:14           0         157       0.000
  023                  JUNCTION     0.074    0.074    89  00:01        36.5        36.5      -0.000
  024                  JUNCTION     0.000    0.075    89  00:24           0         176       0.000
  025                  JUNCTION     0.044    0.044    89  00:01        21.6        21.6       0.000
  026                  JUNCTION     0.000    0.020   307  00:43           0         117       0.000
  027                  JUNCTION     0.000    0.053    89  00:15           0         130       0.000
  028                  JUNCTION     0.000    0.013   272  01:33           0         102       0.000
  029                  JUNCTION     0.000    0.028    89  00:01           0        92.9      -0.000
  030                  JUNCTION     0.000    0.009   122  15:50           0        83.4       0.000
  030A                 JUNCTION     0.000    0.009    54  02:58           0        83.4       0.000
  031                  JUNCTION     0.000    0.009   122  15:47           0        83.4       0.000
  032                  JUNCTION     0.000    0.048    88  01:08           0        93.1       0.000
  033                  JUNCTION     0.000    0.005    61  01:26           0        67.9       0.000
  034                  JUNCTION     0.000    0.005   205  00:37           0          68       0.000
  034A                 JUNCTION     0.000    0.005   200  01:40           0          68       0.000
  035                  JUNCTION     0.000    0.053    88  01:04           0         142       0.000
  035A                 JUNCTION     0.043    0.043    89  00:01        20.8        20.8      -0.000
  036                  JUNCTION     0.000    0.048    89  00:07           0         143       0.000
  037                  JUNCTION     0.018    0.018    89  00:01        8.84        8.84       0.000
  038                  JUNCTION     0.000    0.052    89  00:01           0        28.1      -0.000
  039                  JUNCTION     0.020    0.020    89  00:01        9.75        9.75       0.000
  040                  JUNCTION     0.000    0.020    89  00:01           0        9.93       0.000
  041                  JUNCTION     0.037    0.037    88  23:56        18.1        18.1       0.000
  042                  JUNCTION     0.020    0.020    89  00:01        9.93        9.93       0.000
  043                  JUNCTION     0.021    0.021    88  20:46        10.6        10.6       0.000
  044                  JUNCTION     0.000    0.044    88  21:03           0        21.6      -0.000
  045                  JUNCTION     0.000    0.046    89  00:06           0        61.8       0.000
  046                  JUNCTION     0.000    0.040    88  19:53           0        65.8      -0.000
  047                  JUNCTION     0.000    0.025    88  00:07           0        64.3       0.000
  048                  JUNCTION     0.000    0.044    89  00:29           0         111       0.000
  049                  JUNCTION     0.000    0.033    24  07:52           0         140       0.000
  050                  JUNCTION     0.000    0.068    88  00:06           0        78.1       0.000
  050A                 JUNCTION     0.000    0.013   190  14:12           0        49.6       0.000
  051                  JUNCTION     0.100    0.100    88  13:02        49.5        49.5      -0.000
  052                  JUNCTION     0.000    0.017    81  03:26           0        32.8      -0.000
  053                  JUNCTION     0.000    0.017    81  03:26           0        32.8       0.000
  054                  JUNCTION     0.000    0.036    88  00:37           0        36.1       0.000
  055                  JUNCTION     0.000    0.024    88  00:36           0        14.2       0.000
  056                  JUNCTION     0.030    0.030    88  15:25        14.9        14.9      -0.000
  057                  JUNCTION     0.000    0.020    89  00:27           0        46.3       0.000
  058                  JUNCTION     0.027    0.027    88  20:00        13.5        13.5       0.000
  059                  JUNCTION     0.000    0.011    88  00:10           0        10.9       0.000
  060                  JUNCTION     0.029    0.029    88  10:21        14.2        14.2      -0.000
  061                  JUNCTION     0.022    0.022    88  21:06          11          11       0.000
  062                  JUNCTION     0.000    0.011    89  00:22           0        10.9       0.000
  063                  JUNCTION     0.029    0.029    88  12:50        14.6        14.6       0.000
  064                  JUNCTION     0.024    0.024    88  17:36          12          12       0.000
  065                  JUNCTION     0.040    0.040    88  20:37        19.9        19.9      -0.000
  066                  JUNCTION     0.000    0.071    88  23:53           0        37.5       0.000
  067                  JUNCTION     0.000    0.033    87  04:14           0        70.1       0.000
  068                  JUNCTION     0.000    0.060    88  00:53           0        73.2      -0.000
  069                  JUNCTION     0.000    0.020    87  04:59           0        46.7       0.000
  070                  JUNCTION     0.000    0.026    88  00:03           0        47.7       0.000
  071                  JUNCTION     0.053    0.053    89  00:01        26.2        26.2       0.000
  072                  JUNCTION     0.022    0.022    89  00:01        10.5        10.5       0.000
  073                  JUNCTION     0.000    0.039    89  00:01           0        38.9       0.000
  074                  JUNCTION     0.056    0.056    89  00:01        27.7        27.7       0.000
  075                  JUNCTION     0.020    0.020    89  00:01        9.59        9.59       0.000
  076                  JUNCTION     0.009    0.009    88  21:51        4.43        4.43       0.000
  077                  JUNCTION     0.000    0.019    88  21:52           0        9.16      -0.000
  078                  JUNCTION     0.000    0.019    88  21:53           0        9.16       0.000
  079                  JUNCTION     0.000    0.010    88  20:10           0        4.73       0.000
  079A                 JUNCTION     0.010    0.010    88  20:12        4.73        4.73       0.000
  080                  JUNCTION     0.000    0.000     0  00:00           0           0       0.000 ltr
  081                  JUNCTION     0.055    0.055    89  00:01        26.8        26.8      -0.000
  082                  JUNCTION     0.000    0.026    89  00:01           0        12.9       0.000
  083                  JUNCTION     0.026    0.026    89  00:01        12.9        12.9       0.000
  084                  JUNCTION     0.000    0.026    89  00:01           0        12.9       0.000
  085                  JUNCTION     0.000    0.030    89  00:01           0          45       0.000
  086                  JUNCTION     0.000    0.012    24  10:42           0        40.1       0.000
  087                  JUNCTION     0.000    0.042    88  00:50           0          61       0.000
  088                  JUNCTION     0.059    0.059    88  18:17        29.2        29.2      -0.000
  089                  JUNCTION     0.000    0.048    88  00:14           0          56       0.000
  090                  JUNCTION     0.023    0.023    88  12:12        11.3        11.3       0.000
  090A                 JUNCTION     0.000    0.023    88  12:12           0        11.3       0.000
  091                  JUNCTION     0.000    0.057    88  12:51           0        31.4       0.000
  092                  JUNCTION     0.012    0.012    88  08:52        6.17        6.17      -0.000
  093                  JUNCTION     0.000    0.035    89  00:03           0        35.1       0.000
  094                  JUNCTION     0.000    0.024    89  00:15           0        46.3       0.000
  095                  JUNCTION     0.000    0.025    89  00:06           0        17.5      -0.000
  096                  JUNCTION     0.000    0.017    71  02:54           0        45.2       0.000
  097                  JUNCTION     0.000    0.012   202  15:14           0        40.1       0.000
  098                  JUNCTION     0.000    0.012   334  16:15           0        40.1       0.000
  099                  JUNCTION     0.000    0.012   334  16:17           0        40.1       0.000
  100                  JUNCTION     0.000    0.012   334  16:17           0        40.1       0.000
  101                  JUNCTION     0.000    0.014    89  00:44           0        43.7       0.000
  102                  JUNCTION     0.000    0.029    88  00:50           0        17.4       0.000
  103                  JUNCTION     0.000    0.029    88  00:49           0        17.4       0.000
  104                  JUNCTION     0.037    0.037    88  23:57        18.1        18.1      -0.000
  105                  JUNCTION     0.007    0.007    89  00:01        3.48        3.48       0.000
  106                  JUNCTION     0.024    0.024    88  22:16        11.8        11.8      -0.000
  107                  JUNCTION     0.000    0.039    88  02:42           0          20       0.000
  108                  JUNCTION     0.000    0.039    89  00:01           0        33.5       0.000
  109                  JUNCTION     0.000    0.071    89  00:01           0        69.1       0.000
  110                  JUNCTION     0.038    0.038    88  18:53        18.6        18.6      -0.000
  111                  JUNCTION     0.000    0.011    71  03:17           0        52.3      -0.000
  112                  JUNCTION     0.000    0.011   138  06:26           0        52.4       0.000
  113                  JUNCTION     0.000    0.012    24  10:40           0        40.1       0.000
  114                  JUNCTION     0.000    0.077    89  00:08           0         108       0.000
  115                  JUNCTION     0.000    0.021   160  15:40           0        80.1       0.000
  116                  JUNCTION     0.000    0.079    88  17:29           0         117       0.000
  116A                 JUNCTION     0.000    0.044    88  17:32           0        21.9       0.000
  117                  JUNCTION     0.044    0.044    88  17:31        21.9        21.9       0.000
  118                  JUNCTION     0.000    0.035    88  00:08           0        94.9       0.000
  119                  JUNCTION     0.000    0.011    71  03:18           0        52.3       0.000
  120                  JUNCTION     0.000    0.010   345  05:21           0        25.8       0.000
  121                  JUNCTION     0.047    0.047    88  19:51        23.1        23.1       0.000
  122                  JUNCTION     0.000    0.010    54  03:21           0        25.8       0.000
  123                  JUNCTION     0.027    0.027    89  00:01        13.4        13.4       0.000
  124                  JUNCTION     0.000    0.033    88  00:15           0        33.6       0.000
  125                  JUNCTION     0.000    0.033    89  00:01           0        23.7       0.000
  126                  JUNCTION     0.013    0.013    89  00:01        6.29        6.29       0.000
  127                  JUNCTION     0.000    0.030    89  00:03           0          22       0.000
  128                  JUNCTION     0.000    0.030    89  00:04           0          22       0.000
  0129                 JUNCTION     0.032    0.032    88  23:55        15.9        15.9       0.000
  130                  JUNCTION     0.000    0.015    89  00:02           0        7.65       0.000
  131                  JUNCTION     0.015    0.015    88  17:40        7.65        7.65       0.000
  132                  JUNCTION     0.000    0.031   288  00:09           0        61.6       0.000
  133                  JUNCTION     0.029    0.029    89  00:01        14.3        14.3       0.000
  134                  JUNCTION     0.000    0.012    89  00:35           0          13       0.000
  135                  JUNCTION     0.000    0.013    89  00:28           0          13      -0.000
  136                  JUNCTION     0.018    0.018    88  19:07        8.95        8.95       0.000
  137                  JUNCTION     0.000    0.018    89  00:05           0         8.9       0.000
  138                  JUNCTION     0.000    0.034    88  18:55           0        28.9       0.000
  139                  JUNCTION     0.000    0.007    71  03:12           0        15.3       0.000
  139A                 JUNCTION     0.000    0.024    89  00:10           0        18.9      -0.000
  139B                 JUNCTION     0.000    0.034    88  00:37           0        19.7       0.000
  140                  JUNCTION     0.000    0.038    88  13:26           0        20.2       0.000
  141                  JUNCTION     0.000    0.040    88  13:57           0        20.4       0.000
  142                  JUNCTION     0.041    0.041    88  14:01        20.5        20.5       0.000
  143                  JUNCTION     0.009    0.009    88  12:36        4.69        4.69       0.000
  144                  JUNCTION     0.000    0.009    89  00:02           0        4.69       0.000
  145                  JUNCTION     0.000    0.031    88  01:02           0        18.3       0.000
  146                  JUNCTION     0.000    0.012    89  00:02           0        6.15       0.000
  147                  JUNCTION     0.000    0.022    88  00:20           0        17.5      -0.000
  148                  JUNCTION     0.012    0.012    88  11:52        6.15        6.15       0.000
  149                  JUNCTION     0.000    0.033    89  00:03           0        19.9       0.000
  150                  JUNCTION     0.000    0.030    88  00:24           0        19.4      -0.000
  151                  JUNCTION     0.000    0.034    89  00:05           0        26.6       0.000
  152                  JUNCTION     0.000    0.016    89  00:03           0        8.11       0.000
  153                  JUNCTION     0.000    0.016    89  00:03           0        8.11       0.000
  154                  JUNCTION     0.000    0.016    89  00:03           0        8.11       0.000
  155                  JUNCTION     0.000    0.016    88  15:19           0        8.11       0.000
  156                  JUNCTION     0.000    0.016    88  15:18           0        8.12       0.000
  157                  JUNCTION     0.016    0.016    88  15:31        8.18        8.18      -0.000
  158                  JUNCTION     0.000    0.028    88  00:23           0          26       0.000
  159                  JUNCTION     0.000    0.053    89  00:17           0        57.5      -0.000
  160                  JUNCTION     0.000    0.032    89  00:08           0        32.2      -0.000
  161                  JUNCTION     0.062    0.062    88  09:05        31.1        31.1       0.000
  162                  JUNCTION     0.029    0.029    88  11:27        14.4        14.4      -0.000
  163                  JUNCTION     0.000    0.015    88  00:14           0        11.3       0.000
  164                  JUNCTION     0.024    0.024    88  11:47        12.2        12.2      -0.000
  165                  JUNCTION     0.000    0.009    89  00:05           0        4.43       0.000
  166                  JUNCTION     0.000    0.009    89  00:05           0        4.43       0.000
  167                  JUNCTION     0.000    0.009    89  00:04           0        4.43       0.000
  168                  JUNCTION     0.000    0.009    89  00:02           0        4.44      -0.000
  169                  JUNCTION     0.008    0.008    88  06:31        4.44        4.44       0.000
  170                  JUNCTION     0.000    0.038    88  19:49           0        18.7      -0.000
  171                  JUNCTION     0.017    0.017    88  12:05        8.28        8.28       0.000
  172                  JUNCTION     0.021    0.021    88  19:45        10.4        10.4       0.000
  173                  JUNCTION     0.000    0.017    88  00:06           0        16.8       0.000
  173A                 JUNCTION     0.000    0.016    88  00:06           0        16.8       0.000
  174                  JUNCTION     0.000    0.016    88  00:07           0        16.8       0.000
  175                  JUNCTION     0.136    0.136    89  00:01        66.6        66.6       0.000
  176                  JUNCTION     0.000    0.037    89  00:57           0          57       0.000
  177                  JUNCTION     0.000    0.024    56  04:07           0        50.5       0.000
  178                  JUNCTION     0.000    0.012   334  17:37           0        39.8       0.000
  179                  JUNCTION     0.000    0.012    54  02:48           0        39.8       0.000
  179W                 JUNCTION     0.000    0.012    54  02:48           0        39.8       0.000
  180                  JUNCTION     0.000    0.025    87  03:26           0        66.5       0.000
  181                  JUNCTION     0.000    0.046    54  04:41           0         116       0.000
  182                  JUNCTION     0.000    0.041    81  08:51           0         123       0.000
  183                  JUNCTION     0.000    0.041    81  08:51           0         123       0.000
  184                  JUNCTION     0.000    0.023    81  08:51           0        37.8       0.000
  185                  JUNCTION     0.000    0.026    87  04:08           0        38.7       0.000
  186                  JUNCTION     0.037    0.037    88  20:26        18.4        18.4      -0.000
  187                  JUNCTION     0.000    0.044    88  00:45           0        35.5       0.000
  188                  JUNCTION     0.041    0.041    88  20:13        20.3        20.3       0.000
  189                  JUNCTION     0.019    0.019    88  16:41        9.63        9.63       0.000
  190                  JUNCTION     0.000    0.052    88  16:37           0        59.3       0.000
  191                  JUNCTION     0.042    0.042    88  16:36        20.9        20.9      -0.000
  192                  JUNCTION     0.000    0.013    81  03:49           0        21.9       0.000
  193                  JUNCTION     0.053    0.053    88  08:42        26.4        26.4      -0.000
  194                  JUNCTION     0.000    0.026    89  00:01           0        12.5       0.000
  195                  JUNCTION     0.026    0.026    89  00:01        12.5        12.5       0.000
  196                  JUNCTION     0.016    0.016    89  00:01        8.01        8.01       0.000
  196A                 JUNCTION     0.000    0.016    89  00:01           0        8.01       0.000
  197                  JUNCTION     0.000    0.010    56  03:47           0        21.1       0.000
  198                  JUNCTION     0.000    0.010    56  03:47           0        21.1       0.000
  199                  JUNCTION     0.000    0.014    89  00:18           0        9.82       0.000
  200                  JUNCTION     0.000    0.098    88  17:29           0         197       0.000
  201                  JUNCTION     0.000    0.062    89  00:37           0         192       0.000
  203                  JUNCTION     0.000    0.016    89  00:03           0        7.64       0.000
  205                  JUNCTION     0.000    0.008    89  00:06           0        4.43       0.000
  206                  JUNCTION     0.000    0.008    89  00:07           0        4.43       0.000
  207                  JUNCTION     0.017    0.017    88  21:26         8.5         8.5       0.000
  208                  JUNCTION     0.000    0.011   320  16:35           0        41.1       0.000
  212                  JUNCTION     0.037    0.037    88  09:07        18.6        18.6       0.000
  300                  JUNCTION     0.092    0.092    89  00:01        45.2        45.2       0.000
  301                  JUNCTION     0.000    0.026    87  04:07           0        38.7      -0.000
  302                  JUNCTION     0.000    0.011   320  16:33           0        41.1       0.000
  303                  JUNCTION     0.000    0.018   287  04:01           0        48.9       0.000
  304                  JUNCTION     0.000    0.022   345  06:26           0        51.8       0.000
  305                  JUNCTION     0.000    0.022    71  03:33           0        51.8       0.000
  306                  JUNCTION     0.146    0.146    89  00:01        72.1        72.1       0.000
  309                  JUNCTION     0.000    0.012    24  01:32           0        94.9       0.000
  310                  JUNCTION     0.000    0.012   202  02:04           0        94.9       0.000
  311                  JUNCTION     0.000    0.012   246  09:05           0        94.9       0.000
  312                  JUNCTION     0.000    0.018   122  22:01           0         105       0.000
  313                  JUNCTION     0.000    0.018   234  05:50           0         105      -0.000
  314                  JUNCTION     0.000    0.008   174  00:30           0        74.6       0.000
  314A                 JUNCTION     0.000    0.008   270  01:05           0        74.6       0.000
  315                  JUNCTION     0.000    0.013   360  00:58           0        91.5       0.000
  316                  JUNCTION     0.000    0.013   199  02:49           0        91.5       0.000
  317                  JUNCTION     0.000    0.013    17  00:43           0        91.5       0.000
  318                  JUNCTION     0.000    0.013   199  02:44           0        91.5       0.000
  319                  JUNCTION     0.000    0.025   346  14:23           0         117       0.000
  320                  JUNCTION     0.000    0.030    17  16:53           0         127       0.000
  321                  JUNCTION     0.000    0.030    17  16:53           0         127      -0.000
  322                  JUNCTION     0.000    0.030    17  16:53           0         127       0.000
  323                  JUNCTION     0.496    0.496    89  00:01         242         242       0.000
  323A                 JUNCTION     0.000    0.063    71  03:33           0         166       0.000
  324                  JUNCTION     0.101    0.101    89  00:01        49.4        49.4       0.000
  PS1                  JUNCTION     0.000    0.041    81  08:51           0         123       0.000
  PS2                  JUNCTION     0.000    0.025    55  00:23           0        49.7       0.000
  PS3                  JUNCTION     0.000    0.005   137  00:28           0        73.7       0.000
  PS4                  JUNCTION     0.000    0.029   308  01:26           0         131       0.000
  PS5                  JUNCTION     0.000    0.077    88  00:25           0         355       0.000
  PS6                  JUNCTION     0.000    0.012    17  12:20           0        94.9       0.000
  O2                   JUNCTION     0.000    0.088    88  00:25           0         450       0.000
  O3                   OUTFALL      0.000    0.047   190  12:45           0         413       0.000
  
  
  *********************
  Node Flooding Summary
  *********************
  
  Flooding refers to all water that overflows a node, whether it ponds or not.
  --------------------------------------------------------------------------
                                                             Total   Maximum
                                 Maximum   Time of Max       Flood    Ponded
                        Hours       Rate    Occurrence      Volume    Volume
  Node                 Flooded       CMS   days hr:min    10^6 ltr   1000 m
  --------------------------------------------------------------------------
  001                   192.78     0.017     89  00:14       3.188     0.000
  003                    23.92     0.002     88  00:37       0.014     0.000
  004                   188.68     0.033     89  00:02       5.046     0.000
  006                    24.23     0.006     88  00:39       0.398     0.000
  008                     0.17     0.001     88  00:36       0.000     0.000
  009                    23.93     0.012     89  00:01       0.986     0.000
  010                    24.07     0.011     89  00:01       0.902     0.000
  013                    24.35     0.001     89  00:25       0.049     0.000
  014                    23.92     0.023     89  00:01       1.915     0.000
  018                    24.28     0.017     88  18:47       1.414     0.000
  021                   187.27     0.017     88  17:41       4.018     0.000
  022                   183.83     0.005     89  01:14       1.025     0.000
  023                   143.88     0.059     89  00:01       6.670     0.000
  024                   653.32     0.057     89  00:24      59.531     0.000
  025                    24.33     0.024     89  00:01       2.018     0.000
  026                   905.15     0.007    307  00:43      15.187     0.000
  027                  1008.10     0.042     89  00:15      27.456     0.000
  029                    23.67     0.006     89  00:01       0.506     0.000
  032                   413.95     0.039     88  01:08       9.860     0.000
  035                  1579.37     0.048     88  01:04      73.899     0.000
  035A                   23.48     0.012     89  00:01       0.967     0.000
  036                   639.95     0.027     89  00:07      21.451     0.000
  038                    23.60     0.012     89  00:01       0.984     0.000
  040                    23.47     0.006     89  00:01       0.459     0.000
  044                    23.48     0.010     88  21:03       0.822     0.000
  045                   451.63     0.033     89  00:06       9.595     0.000
  046                    24.45     0.017     88  19:53       1.468     0.000
  048                   497.50     0.025     89  00:29      20.484     0.000
  049                   511.80     0.006     24  07:52       8.539     0.000
  050                   473.23     0.056     88  00:06      28.525     0.000
  051                    24.12     0.050     88  13:02       4.274     0.000
  054                   153.70     0.019     88  00:37       3.333     0.000
  056                    23.72     0.008     88  15:25       0.661     0.000
  060                    23.40     0.002     88  10:21       0.191     0.000
  064                    24.27     0.014     88  17:36       1.165     0.000
  065                    23.23     0.006     88  20:37       0.513     0.000
  066                   194.45     0.058     88  23:53       8.626     0.000
  067                  1107.48     0.030     87  04:14      37.920     0.000
  068                   138.97     0.030     88  00:53       3.392     0.000
  069                   140.95     0.003     87  04:59       0.826     0.000
  070                   106.33     0.007     88  00:03       1.133     0.000
  071                    23.30     0.012     89  00:01       0.973     0.000
  072                    23.97     0.009     89  00:01       0.701     0.000
  073                   482.93     0.033     89  00:01      14.995     0.000
  074                   193.57     0.047     89  00:01       6.678     0.000
  077                    22.88     0.002     88  21:52       0.144     0.000
  081                    41.12     0.036     89  00:01       3.050     0.000
  085                    24.57     0.016     89  00:01       1.375     0.000
  087                   317.63     0.032     88  00:50       8.737     0.000
  088                    24.07     0.026     88  18:17       2.172     0.000
  089                   273.37     0.033     88  00:14      10.868     0.000
  090A                   23.58     0.004     88  12:12       0.326     0.000
  091                   296.62     0.050     88  12:51      10.517     0.000
  092                    23.88     0.003     88  08:52       0.295     0.000
  093                   334.05     0.025     89  00:03       5.437     0.000
  094                   474.57     0.015     89  00:15      10.900     0.000
  095                    24.20     0.012     89  00:06       0.906     0.000
  096                   402.88     0.006     71  02:54       5.180     0.000
  104                    23.50     0.009     88  23:57       0.758     0.000
  106                    23.02     0.003     88  22:16       0.252     0.000
  107                    24.07     0.016     88  02:42       1.258     0.000
  109                    23.67     0.009     89  00:01       0.700     0.000
  110                    24.00     0.015     88  18:53       1.279     0.000
  114                   464.70     0.058     89  00:08      28.501     0.000
  118                    24.30     0.001     88  00:08       0.066     0.000
  121                   164.90     0.038     88  19:51       4.784     0.000
  124                   252.25     0.023     88  00:15       7.868     0.000
  125                    42.93     0.016     89  00:01       1.445     0.000
  127                     0.02     0.000     89  00:03       0.000     0.000
  128                    81.83     0.018     89  00:04       1.932     0.000
  0129                   24.38     0.018     88  23:55       1.551     0.000
  130                    22.07     0.000     89  00:02       0.020     0.000
  132                   514.47     0.024    288  00:09      24.372     0.000
  133                    23.57     0.009     89  00:01       0.702     0.000
  134                   147.87     0.006     89  00:35       1.131     0.000
  135                    24.40     0.002     89  00:28       0.094     0.000
  136                    22.95     0.002     88  19:07       0.138     0.000
  138                   147.48     0.021     88  18:55       2.325     0.000
  139A                  198.27     0.018     89  00:10       3.583     0.000
  139B                   24.05     0.012     88  00:37       0.783     0.000
  140                    23.67     0.006     88  13:26       0.545     0.000
  141                    23.37     0.004     88  13:57       0.321     0.000
  142                    23.13     0.003     88  14:01       0.250     0.000
  145                    24.15     0.011     88  01:02       0.796     0.000
  147                    24.17     0.002     88  00:20       0.034     0.000
  149                    23.83     0.005     89  00:03       0.431     0.000
  150                    24.17     0.012     88  00:24       0.882     0.000
  151                    24.07     0.007     89  00:05       0.602     0.000
  157                    23.25     0.002     88  15:31       0.160     0.000
  158                     0.12     0.001     88  00:23       0.000     0.000
  159                   196.98     0.029     89  00:17       7.882     0.000
  160                    45.20     0.008     89  00:08       0.759     0.000
  161                    24.18     0.039     88  09:05       3.304     0.000
  162                    23.82     0.008     88  11:27       0.664     0.000
  164                    24.00     0.010     88  11:47       0.859     0.000
  168                    23.43     0.000     89  00:02       0.015     0.000
  170                    24.27     0.022     88  19:49       1.873     0.000
  175                    77.35     0.101     89  00:01       9.634     0.000
  176                   193.05     0.015     89  00:57       6.534     0.000
  177                   394.95     0.013     56  04:07      10.793     0.000
  180                   342.27     0.007     87  03:26       5.214     0.000
  181                   490.15     0.027     54  04:41      30.452     0.000
  185                   142.43     0.005     87  04:08       1.049     0.000
  186                    44.53     0.025     88  20:26       2.281     0.000
  187                   150.10     0.028     88  00:45       4.554     0.000
  188                    23.68     0.012     88  20:13       0.963     0.000
  190                   189.70     0.026     88  16:37       4.890     0.000
  191                    24.30     0.025     88  16:36       2.153     0.000
  193                   152.68     0.041     88  08:40       4.559     0.000
  194                    23.15     0.006     89  00:01       0.463     0.000
  200                   147.13     0.041     88  17:29       4.927     0.000
  201                  1810.08     0.057     89  00:37     118.555     0.000
  212                    23.95     0.013     88  09:07       1.107     0.000
  300                    79.27     0.068     89  00:01       6.570     0.000
  303                   439.75     0.008    287  04:01       7.877     0.000
  304                   266.08     0.005    345  06:26       3.022     0.000
  306                   221.12     0.126     89  00:01      20.265     0.000
  312                   730.15     0.007    122  22:01      10.776     0.000
  316                  1206.70     0.006    199  02:49      17.024     0.000
  319                   912.60     0.012    346  14:23      25.700     0.000
  320                   540.90     0.008     17  16:53       9.921     0.000
  323                   251.75     0.437     89  00:01      75.906     0.000
  323A                  477.47     0.035     71  03:33      39.388     0.000
  324                   341.22     0.092     89  00:01      18.506     0.000
  O2                    646.58     0.045     88  00:25      37.726     0.000
  
  
  ***********************
  Outfall Loading Summary
  ***********************
  
  -----------------------------------------------------------
                         Flow       Avg       Max       Total
                         Freq      Flow      Flow      Volume
  Outfall Node           Pcnt       CMS       CMS    10^6 ltr
  -----------------------------------------------------------
  O3                    99.99     0.013     0.047     412.724
  -----------------------------------------------------------
  System                99.99     0.013     0.047     412.724
  
  
  ********************
  Link Flow Summary
  ********************
  
  -----------------------------------------------------------------------------
                                 Maximum  Time of Max   Maximum    Max/    Max/
                                  |Flow|   Occurrence   |Veloc|    Full    Full
  Link                 Type          CMS  days hr:min     m/sec    Flow   Depth
  -----------------------------------------------------------------------------
  1                    CONDUIT     0.026    87  04:07      0.89    1.08    1.00
  2                    CONDUIT     0.026    87  04:08      1.16    0.75    0.65
  3                    CONDUIT     0.023    81  08:51      0.77    1.08    1.00
  4                    CONDUIT     0.023    81  08:51      0.92    0.89    0.73
  5                    CONDUIT     0.041    81  08:51      1.38    0.62    0.57
  6                    CONDUIT     0.041    81  08:51      1.37    0.62    0.57
  7                    CONDUIT     0.032    88  00:45      1.08    1.08    1.00
  8                    CONDUIT     0.013    87  06:51      0.44    1.08    1.00
  9                    CONDUIT     0.019    88  16:37      1.09    0.58    0.55
  10                   CONDUIT     0.018    89  00:23      0.63    1.08    1.00
  11                   CONDUIT     0.028    54  04:41      0.63    1.08    1.00
  12                   CONDUIT     0.020   190  13:28      0.46    1.08    1.00
  13                   CONDUIT     0.019   287  03:37      0.41    1.08    1.00
  14                   CONDUIT     0.017    54  05:14      0.58    1.08    1.00
  15                   CONDUIT     0.037    89  00:57      1.25    1.07    1.00
  16                   CONDUIT     0.024    56  04:07      0.83    1.08    1.00
  17                   CONDUIT     0.012   334  17:37      0.42    1.08    1.00
  18                   CONDUIT     0.012    54  02:48      0.45    0.98    0.79
  19                   CONDUIT     0.012    54  02:48      1.41    0.21    0.31
  20                   CONDUIT     0.012   259  10:31      0.57    0.71    0.62
  21                   CONDUIT     0.014    87  03:26      0.47    1.08    1.00
  22                   CONDUIT     0.017   287  12:10      0.59    1.08    1.00
  23                   CONDUIT     0.041    55  00:33      1.39    1.07    1.00
  24                   CONDUIT     0.009    88  17:03      0.93    0.27    0.36
  25                   CONDUIT     0.029    88  18:47      2.04    0.42    0.45
  26                   CONDUIT     0.014    89  00:23      0.47    1.08    1.00
  27                   CONDUIT     0.021    89  00:24      0.72    1.07    1.00
  28                   CONDUIT     0.057    89  01:14      1.90    1.08    1.00
  29                   CONDUIT     0.020   307  00:43      0.68    1.08    1.00
  30                   CONDUIT     0.014    40  01:08      0.49    1.08    1.00
  31                   CONDUIT     0.040    89  00:15      1.37    1.06    1.00
  32                   CONDUIT     0.013   272  01:33      0.45    1.08    1.00
  33                   CONDUIT     0.013    89  00:24      1.18    0.31    0.38
  34                   CONDUIT     0.013    89  00:25      0.48    0.98    0.80
  35                   CONDUIT     0.013    89  00:28      0.45    1.08    0.93
  36                   CONDUIT     0.007    56  01:44      0.32    0.83    0.69
  37                   CONDUIT     0.007    71  03:12      0.26    1.08    1.00
  38                   CONDUIT     0.024    89  00:10      0.84    1.07    1.00
  39                   CONDUIT     0.018    89  00:05      1.91    0.23    0.33
  40                   CONDUIT     0.040    88  13:57      1.39    1.05    0.94
  41                   CONDUIT     0.038    88  13:26      1.28    1.06    1.00
  42                   CONDUIT     0.034    88  00:37      1.16    1.08    1.00
  43                   CONDUIT     0.016    88  15:18      0.57    1.08    0.96
  44                   CONDUIT     0.009    89  00:02      0.58    0.28    0.36
  45                   CONDUIT     0.009    89  00:03      0.58    0.28    0.36
  46                   CONDUIT     0.022    88  01:02      0.75    1.08    1.00
  47                   CONDUIT     0.012    89  00:35      0.42    1.08    0.95
  48                   CONDUIT     0.007    54  07:52      0.25    1.08    1.00
  49                   CONDUIT     0.013   272  01:41      0.72    0.59    0.55
  50                   CONDUIT     0.025    89  00:01      0.94    0.98    0.80
  51                   CONDUIT     0.025    89  00:01      1.02    0.87    0.72
  52                   CONDUIT     0.008   320  09:09      0.29    1.08    1.00
  53                   CONDUIT     0.024    88  00:38      0.80    1.08    1.00
  54                   CONDUIT     0.024    88  01:15      0.52    1.08    1.00
  55                   CONDUIT     0.058    88  00:39      1.39    0.93    0.76
  56                   CONDUIT     0.077    88  00:25      1.15    1.06    1.00
  57                   CONDUIT     0.024   287  09:40      1.19    0.22    0.32
  58                   CONDUIT     0.013    89  00:01      0.74    0.56    0.53
  59                   CONDUIT     0.022    88  00:20      0.49    1.08    1.00
  60                   CONDUIT     0.022    89  00:25      0.47    1.08    0.93
  61                   CONDUIT     0.015    89  00:02      0.65    0.84    0.70
  63                   CONDUIT     0.020    88  00:36      0.69    1.08    1.00
  64                   CONDUIT     0.021    88  00:37      0.71    1.07    0.92
  65                   CONDUIT     0.033    89  00:18      0.49    1.08    0.92
  66                   CONDUIT     0.024   287  09:39      0.36    1.08    1.00
  67                   CONDUIT     0.017    88  21:24      1.24    0.40    0.44
  68                   CONDUIT     0.024    89  00:14      0.82    1.06    1.00
  69                   CONDUIT     0.013    81  04:27      0.43    1.08    1.00
  70                   CONDUIT     0.013    81  04:31      0.51    0.91    0.74
  71                   CONDUIT     0.007    89  00:02      0.57    0.37    0.42
  72                   CONDUIT     0.022    88  02:38      0.78    1.08    1.00
  73                   CONDUIT     0.016    89  00:03      1.45    0.30    0.37
  74                   CONDUIT     0.030    89  00:04      0.68    1.03    0.88
  75                   CONDUIT     0.027    89  00:01      1.01    0.96    0.79
  76                   CONDUIT     0.013    87  03:47      0.29    1.08    1.00
  77                   CONDUIT     0.039    89  00:01      1.15    0.75    0.64
  78                   CONDUIT     0.024    88  00:19      0.82    1.08    1.00
  79                   CONDUIT     0.010    71  04:18      0.34    1.08    1.00
  80                   CONDUIT     0.066    89  00:08      1.43    1.07    1.00
  81                   CONDUIT     0.021   160  15:40      0.34    1.08    1.00
  82                   CONDUIT     0.019    88  00:07      0.64    1.08    1.00
  83                   CONDUIT     0.010    54  03:21      0.23    1.08    1.00
  84                   CONDUIT     0.010   345  05:21      0.91    0.10    0.21
  85                   CONDUIT     0.010   345  05:23      0.66    0.15    0.26
  86                   CONDUIT     0.044    88  17:32      0.75    0.94    0.77
  87                   CONDUIT     0.036    89  00:25      0.54    1.05    0.92
  88                   CONDUIT     0.044    88  17:29      1.61    0.34    0.40
  89                   CONDUIT     0.079    88  17:29      1.53    0.78    0.66
  90                   CONDUIT     0.062    89  00:37      0.92    1.07    1.00
  91                   CONDUIT     0.005   137  00:28      0.16    1.08    1.00
  92                   CONDUIT     0.016    88  15:19      0.73    0.74    0.64
  93                   CONDUIT     0.016    89  00:03      0.73    0.74    0.64
  94                   CONDUIT     0.016    89  00:03      1.02    0.47    0.48
  95                   CONDUIT     0.016    89  00:03      0.95    0.52    0.51
  96                   CONDUIT     0.016    89  00:05      0.63    0.89    0.73
  97                   CONDUIT     0.028    88  00:23      0.97    1.05    1.00
  98                   CONDUIT     0.028    88  00:23      0.96    1.02    0.92
  99                   CONDUIT     0.025    55  00:23      0.83    1.08    1.00
  100                  CONDUIT     0.025    89  00:15      0.89    1.06    1.00
[...]
  154                  CONDUIT     0.010   138  01:43      0.37    1.08    1.00
  155                  CONDUIT     0.023    88  12:12      1.34    0.53    0.52
  156                  CONDUIT     0.020    88  00:55      0.73    1.08    1.00
  157                  CONDUIT     0.007   138  02:05      0.28    1.08    1.00
  158                  CONDUIT     0.010    88  00:24      0.36    1.08    1.00
  159                  CONDUIT     0.029    88  12:51      1.06    1.00    0.82
  160                  CONDUIT     0.021    88  20:46      1.14    0.62    0.57
  161                  CONDUIT     0.022    88  21:07      1.01    0.76    0.65
  162                  CONDUIT     0.036    89  00:06      1.23    1.06    1.00
  163                  CONDUIT     0.011    89  00:22      0.40    1.08    1.00
  164                  CONDUIT     0.011    88  00:10      0.68    0.51    0.51
  165                  CONDUIT     0.020    89  00:01      1.20    0.53    0.52
  166                  CONDUIT     0.016    88  01:13      0.54    1.08    1.00
  167                  CONDUIT     0.018    89  00:01      0.92    0.65    0.59
  168                  CONDUIT     0.020    89  00:01      1.62    0.34    0.40
  169                  CONDUIT     0.037    88  23:53      1.46    0.89    0.73
  170                  CONDUIT     0.036    88  01:24      1.27    1.06    1.00
  171                  CONDUIT     0.014    56  05:12      0.49    1.08    1.00
  172                  CONDUIT     0.035    88  00:14      1.21    1.07    1.00
  173                  CONDUIT     0.017    71  02:54      0.57    1.08    1.00
  174                  CONDUIT     0.012   202  15:14      0.42    1.08    1.00
  175                  CONDUIT     0.012   334  16:15      0.64    0.62    0.57
  176                  CONDUIT     0.012   334  16:17      0.59    0.38    0.43
  177                  CONDUIT     0.012   334  16:17      0.89    0.21    0.31
  178                  CONDUIT     0.043    88  00:53      1.45    1.07    1.00
  180                  CONDUIT     0.033    87  04:14      1.10    1.08    1.00
  181                  CONDUIT     0.004    98  00:58      0.14    1.08    1.00
  182                  CONDUIT     0.014    89  00:44      0.32    1.08    1.00
  183                  CONDUIT     0.014    88  00:14      0.39    0.84    0.70
  184                  CONDUIT     0.011   138  06:26      0.17    1.08    1.00
  185                  CONDUIT     0.011    71  03:17      0.35    0.41    0.44
  186                  CONDUIT     0.021   345  04:01      0.45    0.74    0.64
  187                  CONDUIT     0.011    71  03:18      0.44    0.29    0.37
  188                  CONDUIT     0.012    24  10:42      0.41    0.63    0.57
  189                  CONDUIT     0.012    24  10:40      0.39    0.68    0.60
  190                  CONDUIT     0.012    24  10:42      0.90    0.39    0.43
  191                  CONDUIT     0.026    89  00:01      1.25    0.69    0.61
  192                  CONDUIT     0.021    89  00:07      0.71    1.08    1.00
  193                  CONDUIT     0.022   190  01:14      0.75    1.08    1.00
  194                  CONDUIT     0.033    88  01:04      1.12    1.07    1.00
  195                  CONDUIT     0.005   200  01:40      0.18    1.08    1.00
  196                  CONDUIT     0.005   205  00:37      0.34    0.45    0.47
  197                  CONDUIT     0.005    61  01:26      0.33    0.26    0.34
  198                  CONDUIT     0.005     0  10:21      0.19    0.54    0.52
  199                  CONDUIT     0.009   122  15:47      0.20    1.08    1.00
  200                  CONDUIT     0.043    88  01:08      1.48    1.05    1.00
  201                  CONDUIT     0.014    89  00:18      0.83    1.06    1.00
  202                  CONDUIT     0.014    89  00:19      1.68    0.43    0.46
  203                  CONDUIT     0.010    56  03:47      0.85    0.71    0.63
  204                  CONDUIT     0.016    89  00:01      1.15    0.87    0.72
  205                  CONDUIT     0.010    56  03:47      0.91    0.65    0.59
  206                  CONDUIT     0.016    89  00:01      1.30    0.75    0.65
  207                  CONDUIT     0.009    88  21:52      0.94    0.25    0.34
  208                  CONDUIT     0.019    88  21:52      0.95    0.64    0.58
  209                  CONDUIT     0.018    88  21:53      0.61    1.06    0.95
  210                  CONDUIT     0.010    88  20:13      0.70    0.40    0.44
  211                  CONDUIT     0.010    88  20:10      0.98    0.25    0.34
  212                  CONDUIT     0.000     0  00:00      0.00    0.00    0.00
  213                  CONDUIT     0.026    89  00:01      0.97    0.97    0.79
  214                  CONDUIT     0.029    88  00:49      0.99    1.05    1.00
  215                  CONDUIT     0.029    88  00:50      0.73    0.91    0.75
  216                  CONDUIT     0.029    88  00:50      1.35    0.39    0.44
  217                  CONDUIT     0.021    88  00:03      1.22    1.07    1.00
  218                  CONDUIT     0.020    87  04:59      0.43    1.08    1.00
  219                  CONDUIT     0.018    71  13:02      0.40    1.08    1.00
  220                  CONDUIT     0.006   320  11:53      0.36    1.08    1.00
  222                  CONDUIT     0.009    54  02:58      0.55    0.31    0.38
  223                  CONDUIT     0.009   122  15:50      0.56    0.29    0.37
  224                  CONDUIT     0.009    81  02:45      0.46    0.38    0.43
  225                  CONDUIT     0.020    89  00:01      1.33    0.44    0.47
  226                  CONDUIT     0.010    56  03:47      0.62    1.08    1.00
  227                  CONDUIT     0.063    71  03:33      2.08    1.08    1.00
  228                  CONDUIT     0.030    17  16:53      1.04    1.07    1.00
  229                  CONDUIT     0.030    17  16:53      1.10    0.99    0.81
  230                  CONDUIT     0.030    17  16:53      2.00    0.46    0.48
  231                  CONDUIT     0.025   346  14:23      0.82    1.07    1.00
  232                  CONDUIT     0.013   199  02:44      0.48    1.08    1.00
  233                  CONDUIT     0.013    17  00:43      0.55    0.87    0.72
  234                  CONDUIT     0.013   360  00:58      1.02    0.38    0.43
  235                  CONDUIT     0.013   199  02:49      0.62    0.73    0.64
  236                  CONDUIT     0.008   174  00:30      0.32    1.08    1.00
  237                  CONDUIT     0.008   270  01:05      1.04    0.32    0.38
  238                  CONDUIT     0.008   270  01:06      0.58    0.71    0.62
  239                  CONDUIT     0.010   234  05:50      0.34    1.08    1.00
  240                  CONDUIT     0.018   122  22:01      0.80    0.75    0.64
  241                  CONDUIT     0.012   246  09:05      0.39    1.08    1.00
  242                  CONDUIT     0.012   202  02:04      0.70    0.53    0.52
  243                  CONDUIT     0.012    24  01:32      0.63    0.62    0.57
  244                  CONDUIT     0.012    17  12:20      0.50    0.82    0.69
  246                  CONDUIT     0.016    89  00:03      0.56    1.06    0.91
  247                  CONDUIT     0.018    89  00:05      0.63    1.08    0.95
  248                  CONDUIT     0.026    89  00:01      1.00    0.94    0.77
  249                  CONDUIT     0.026    89  00:01      1.07    0.86    0.71
  62                   CONDUIT     0.015    88  00:06      0.89    1.06    1.00
  C1                   CONDUIT     0.047   190  12:45      0.70    1.08    1.00
  Pump1                PUMP        0.041    81  08:51                          
  Pump2                PUMP        0.025    55  00:23                          
  Pump3                PUMP        0.005   137  00:28                          
  Pump4                PUMP        0.029   308  01:26                          
  109                  PUMP        0.012    17  12:20                          
  123                  PUMP        0.077    88  00:25                          
  
  
  *************************
  Conduit Surcharge Summary
  *************************
  
  ----------------------------------------------------------------------------
                                                           Hours        Hours 
                         --------- Hours Full --------   Above Full   Capacity
  Conduit                Both Ends  Upstream  Dnstream   Normal Flow   Limited
  ----------------------------------------------------------------------------
  1                          79.28     79.28     79.28     34.37        79.28
  3                         142.45    142.45    142.45     62.13       142.45
  7                          23.68     23.68     23.68      0.33        23.68
  8                          44.53     44.53     44.53     44.50        44.53
  10                         24.30     24.30     24.30     24.33        24.30
  11                        189.70    189.70    189.70    189.57       189.70
  12                        490.18    490.18    490.18    490.37       490.18
  13                        342.32    342.32    342.32    342.13       342.32
  14                        150.12    150.12    150.12    150.08       150.12
  15                         77.37     77.37     77.37     32.60        77.37
  16                        193.05    193.05    193.05      9.60       193.05
  17                        395.02    395.02    395.02     48.17       395.02
  21                        147.50    147.50    147.50    147.35       147.50
  22                        143.88    143.88    143.88     10.80       143.88
  23                        187.28    187.28    187.28     42.97       187.28
  26                         24.28     24.28     24.28      0.07        24.28
  27                         24.35     24.35     24.35     24.35        24.35
  28                        183.85    183.85    183.85    183.75       183.85
  29                        653.33    653.33    653.33     10.27       653.33
  30                        905.17    905.17    905.17    905.78       905.17
  31                         23.92     23.92     23.92     23.92        23.92
  32                       1008.10   1008.10   1008.10   1008.95      1008.10
  35                         24.35     24.35     24.35     24.33        24.35
  37                        198.27    198.27    198.27      4.08       198.27
  38                         24.05     24.05     24.05      0.12        24.05
  40                         23.13     23.13     23.13     23.13        23.13
  41                         23.37     23.37     23.37     23.35        23.37
  42                         23.67     23.67     23.67     23.67        23.67
  43                         23.25     23.25     23.25     23.23        23.25
  46                         23.57     23.57     23.57     23.57        23.57
  47                         24.40     24.40     24.40     24.40        24.40
  48                        147.87    147.87    147.87    147.75       147.87
  52                        514.57    514.57    514.57     17.63       514.57
  53                         24.07     24.07     24.07     24.08        24.07
  54                         23.67     23.67     23.67     23.68        23.67
  56                         24.23     24.23     24.23     24.25        24.23
  59                         24.15     24.15     24.15     24.15        24.15
  60                         24.17     24.17     24.17     24.18        24.17
  63                         23.93     23.93     23.93      0.30        23.93
  64                          0.17      0.17      0.17      0.17         0.17
  65                         23.92     23.92     23.92     23.87        23.92
  66                        188.73    188.73    188.73     51.28       188.73
  68                         24.07     24.07     24.07     24.07        24.07
  69                        192.80    192.80    192.80    192.68       192.80
  72                         23.02     23.02     23.02     23.00        23.02
  74                          0.02      0.02      0.02      0.03         0.02
  76                         81.85     81.85     81.85     81.75        81.85
  78                         24.00     24.00     24.00     24.02        24.00
  79                        164.97    164.97    164.97    164.83       164.97
  80                         23.67     23.67     23.67     23.67        23.67
  81                        464.72    464.72    464.72    464.40       464.72
  82                         42.93     42.93     42.93     18.27        42.93
  83                        252.35    252.35    252.35    251.88       252.35
  87                         24.30     24.30     24.30     24.30        24.30
  90                        147.15    147.15    147.15    147.15       147.15
  91                       1810.20   1810.20   1810.20     55.50      1810.20
  97                         24.07     24.07     24.07      0.18        24.07
  98                          0.12      0.12      0.12      0.12         0.12
  99                        196.98    196.98    196.98    197.03       196.98
  100                        24.18     24.18     24.18      0.05        24.18
  101                        45.20     45.20     45.20     45.20        45.20
  107                        23.43     23.43     23.43     23.38        23.43
  112                        24.27     24.27     24.27     24.28        24.27
  119                        23.83     23.83     23.83     23.85        23.83
  120                        24.17     24.17     24.17      0.07        24.17
  122                        23.82     23.82     23.82      0.20        23.82
  124                        24.00     24.00     24.00      0.10        24.00
  126                       221.12    221.12    221.12    221.10       221.12
  128                       266.12    266.12    266.12    265.98       266.12
  129                       439.83    439.83    439.83    439.35       439.83
  132                       451.68    451.68    451.68    451.35       451.68
  134                        24.45     24.45     24.45     24.47        24.45
  136                       497.52    497.52    497.52      9.88       497.52
  137                       511.82    511.82    511.82    511.77       511.82
  138                        24.12     24.12     24.12     24.12        24.12
  139                       473.25    473.25    473.25    473.12       473.25
  141                       152.68    152.68    152.68    152.62       152.68
  143                       153.72    153.72    153.72      2.37       153.72
  146                        23.72     23.72     23.72     23.72        23.72
  148                        23.95     23.95     23.95      0.08        23.95
  149                        24.20     24.20     24.20     24.23        24.20
  150                       474.58    474.58    474.58    474.27       474.58
  153                        23.40     23.40     23.40     23.37        23.40
  154                       334.10    334.10    334.10     70.87       334.10
  156                        23.58     23.58     23.58      0.47        23.58
  157                       296.65    296.65    296.65     34.68       296.65
  158                        23.88     23.88     23.88     23.85        23.88
  162                        23.48     23.48     23.48     23.50        23.48
  163                        24.27     24.27     24.27      0.10        24.27
  166                        23.47     23.47     23.47     23.48        23.47
  170                        23.23     23.23     23.23     23.23        23.23
  171                       194.47    194.47    194.47    194.42       194.47
  172                        24.07     24.07     24.07     24.05        24.07
  173                       273.38    273.38    273.38    273.22       273.38
  174                       403.03    403.03    403.03    402.43       403.03
  178                        23.60     23.60     23.60     23.60        23.60
  180                       138.97    138.97    138.97     94.18       138.97
  181                      1107.55   1107.55   1107.55     29.72      1107.55
  182                        24.57     24.57     24.57     24.63        24.57
  184                       317.80    317.80    317.80    316.62       317.80
  192                        23.15     23.15     23.15     23.15        23.15
  193                       639.98    639.98    639.98    640.18       639.98
  194                        23.48     23.48     23.48      0.43        23.48
  195                      1579.40   1579.40   1579.40     30.33      1579.40
  199                       414.10    414.10    414.10    413.43       414.10
  200                        23.30     23.30     23.30     23.32        23.30
  201                        23.97     23.97     23.97      0.27        23.97
  209                        22.88     22.88     22.88     22.85        22.88
  214                        23.50     23.50     23.50      0.27        23.50
  217                        41.12     41.12     41.12     41.08        41.12
  218                       106.43    106.43    106.43    106.07       106.43
  219                       140.97    140.97    140.97    140.85       140.97
  220                       483.08    483.08    483.08    483.15       483.08
  226                       193.62    193.62    193.62      8.40       193.62
  227                       251.75    251.75    251.75     30.63       251.75
  228                       477.48    477.48    477.48    477.30       477.48
  231                       540.95    540.95    540.95     38.00       540.95
  232                       912.62    912.62    912.62    913.65       912.62
  236                      1206.75   1206.75   1206.75     71.13      1206.75
  239                       341.35    341.35    341.35    340.85       341.35
  241                       730.53    730.53    730.53    143.70       730.53
  246                        22.08     22.08     22.08     22.02        22.08
  247                        22.95     22.95     22.95     22.92        22.95
  62                         24.38     24.38     24.38     24.38        24.38
  C1                        646.62    646.62    646.62    646.93       646.62
  
  
  ***************
  Pumping Summary
  ***************
  
  ---------------------------------------------------------------------------------------------------------
                                                  Min       Avg       Max     Total     Power    % Time Off
                        Percent   Number of      Flow      Flow      Flow    Volume     Usage    Pump Curve
  Pump                 Utilized   Start-Ups       CMS       CMS       CMS  10^6 ltr     Kw-hr    Low   High
  ---------------------------------------------------------------------------------------------------------
  Pump1                   99.99           1      0.00      0.00      0.04   123.385   1080.74    0.0    0.0
  Pump2                  100.00           1      0.00      0.00      0.02    49.722    317.13    0.0    0.0
  Pump3                  100.00           1      0.00      0.00      0.00    73.715    300.64    0.0    0.0
  Pump4                  100.00           1      0.00      0.00      0.03   131.300    935.82    0.0    0.0
  109                     99.99           1      0.00      0.00      0.01    94.872    124.88    0.0    0.0
  123                    100.00           1      0.00      0.01      0.08   354.725   1960.82    0.0    0.0
  

  Analysis begun on:  Fri Apr 11 19:58:16 2025
  Analysis ended on:  Fri Apr 11 19:59:58 2025
  Total elapsed time: 00:01:42